#override EQN_OF_STATE = "TEOS10"
#override TFREEZE_FORM = "TEOS10"
#override DELTA_RHO_FORM = "mid_pressure"
#override NEUTRAL_POS_METHOD = 2
NDIFF_REF_PRES = 2.e7
#override DAYMAX=0.0625
#override NK=5
DIAG_COORD_DEF_Z="UNIFORM:100"
