#override EQN_OF_STATE = "WRIGHT"
USE_REGRIDDING = True
REGRIDDING_COORDINATE_MODE = "Z*"
#override KHTR = 5000.
#override REMAPPING_SCHEME = "PPM_H4"
#override NDIFF_REMAPPING_SCHEME = "PPM_H4"
REMAP_BOUNDARY_EXTRAP = True
NDIFF_MAX_ITER = 30
#override NK=25
RECALC_NEUTRAL_SURF = True
DELTA_RHO_FORM = "full"
#override NEUTRAL_POS_METHOD = 3
#override NDIFF_REF_PRES = 0.
