!VERBOSITY=9
!DEBUG = True
!DEBUG_CONSERVATION = True
!NK_RHO_VARIES = 25
USE_REGRIDDING = True
REGRIDDING_COORDINATE_MODE = "Z*"
REMAPPING_SCHEME = "PPM_H4"
#override NDIFF_CONTINUOUS = False
NDIFF_REMAPPING_SCHEME = "PPM_H4"
NDIFF_BOUNDARY_EXTRAP = True
REMAP_BOUNDARY_EXTRAP = True
NDIFF_REFINE_POSITION = True
NDIFF_COLIMIT_TS = False
NDIFF_COLIMIT_PASSIVE = False
NDIFF_DEBUG = False
#override DAYMAX = 40
