! Continuous isopycnal mode + initialization
USE_REGRIDDING = True
REGRIDDING_COORDINATE_MODE = "RHO"
INTERPOLATION_SCHEME = "P3M_IH4IH3"
BOUNDARY_EXTRAPOLATION = True
REMAP_BOUNDARY_EXTRAP = True
REMAPPING_SCHEME = "PPM_H4"

NDIFF_CONTINUOUS = False
NDIFF_REMAPPING_SCHEME = "PPM_H4"
NDIFF_BOUNDARY_EXTRAP = True
NDIFF_REFINE_POSITION = True

#override NK = 15
#override LIGHTEST_DENSITY = 1034.3
#override DENSITY_RANGE = 1.5
