!VERBOSITY=9
!DEBUG = True
!DEBUG_CONSERVATION = True
!NK_RHO_VARIES = 25
USE_REGRIDDING = True
REGRIDDING_COORDINATE_MODE = "Z*"
REMAPPING_SCHEME = "PPM_H4"
#override NDIFF_CONTINUOUS = False
NDIFF_REMAPPING_SCHEME = "PPM_H4"
NDIFF_BOUNDARY_EXTRAP = False
REMAP_BOUNDARY_EXTRAP = False
NDIFF_REFINE_POSITION = True
NDIFF_COLIMIT_TS = False
NDIFF_COLIMIT_PASSIVE = False
NDIFF_DEBUG = False
#override DAYMAX = 20

USE_REGIONAL_DYES = True
NUM_DYE_TRACERS = 1
DYE_SOURCE_MINLON = 95
DYE_SOURCE_MAXLON = 105
DYE_SOURCE_MINLAT = 0
DYE_SOURCE_MAXLAT = 40
DYE_SOURCE_MINDEPTH = 180
DYE_SOURCE_MAXDEPTH = 220
DYE_SOURCE_MINTIME = 0
DYE_SOURCE_MAXTIME = 0

!#override EQN_OF_STATE = "WRIGHT"
#override NK = 20
#override KHTR = 4000.
#override NDIFF_REF_PRES = 0.0

