NDIFF_DEBUG = False              !   [Boolean] default = False
!                                ! Turns on verbose output for discontinuous neutral
#override DRHO_DT = -0.2
#override DRHO_DS = 0.8
#override DELTA_RHO_FORM = "full"
#override NEUTRAL_POS_METHOD = 3

