#override EQN_OF_STATE = "WRIGHT"
#override DELTA_RHO_FORM = "mid_pressure"
!#override DELTA_RHO_FORM = "full"
#override NEUTRAL_POS_METHOD = 3
NDIFF_REF_PRES = 0.
USE_REGIONAL_DYES = True
NUM_DYE_TRACERS = 1
DYE_SOURCE_MINLON = 80
DYE_SOURCE_MAXLON = 120
DYE_SOURCE_MINLAT = 0
DYE_SOURCE_MAXLAT = 40
DYE_SOURCE_MINDEPTH = 90
DYE_SOURCE_MAXDEPTH = 110


