! Blank file in which we can put "overrides" for parameters
SAVE_INITIAL_CONDS = True      !   [Boolean] default = False
